  
       XFOIL         Version 6.99
  
 Calculated polar for: NACA 4412                                       
  
 1 1 Reynolds number fixed          Mach number fixed         
  
 xtrf =   1.000 (top)        1.000 (bottom)  
 Mach =   0.000     Re =     2.739 e 6     Ncrit =   9.000
  
   alpha    CL        CD       CDp       CM     Top_Xtr  Bot_Xtr
  ------ -------- --------- --------- -------- -------- --------
  -5.000  -0.0874   0.00690   0.00189  -0.1033   0.7645   0.0352
  -4.000   0.0260   0.00661   0.00149  -0.1034   0.7178   0.0475
  -3.000   0.1393   0.00639   0.00120  -0.1035   0.6668   0.0693
  -2.000   0.2525   0.00627   0.00103  -0.1037   0.6146   0.1060
  -1.000   0.3656   0.00620   0.00096  -0.1039   0.5649   0.1630
   0.000   0.4786   0.00616   0.00100  -0.1042   0.5222   0.2445
   1.000   0.5915   0.00606   0.00111  -0.1045   0.4873   0.3791
   2.000   0.7022   0.00552   0.00136  -0.1047   0.4589   0.7426
   3.000   0.8164   0.00532   0.00164  -0.1050   0.4326   1.0000
   4.000   0.9260   0.00576   0.00192  -0.1046   0.3971   1.0000
   5.000   1.0332   0.00641   0.00234  -0.1039   0.3432   1.0000
   6.000   1.1347   0.00748   0.00303  -0.1024   0.2640   1.0000
   7.000   1.2283   0.00909   0.00411  -0.0996   0.1630   1.0000
   8.000   1.3170   0.01089   0.00546  -0.0961   0.0829   1.0000
   9.000   1.4050   0.01246   0.00680  -0.0925   0.0465   1.0000
  10.000   1.4888   0.01396   0.00821  -0.0883   0.0307   1.0000
