  
       XFOIL         Version 6.99
  
 Calculated polar for: NACA 4412                                       
  
 1 1 Reynolds number fixed          Mach number fixed         
  
 xtrf =   1.000 (top)        1.000 (bottom)  
 Mach =   0.000     Re =     1.867 e 6     Ncrit =   9.000
  
   alpha    CL        CD       CDp       CM     Top_Xtr  Bot_Xtr
  ------ -------- --------- --------- -------- -------- --------
  -5.000  -0.0850   0.00743   0.00219  -0.1037   0.7990   0.0387
  -4.000   0.0276   0.00703   0.00171  -0.1037   0.7555   0.0528
  -3.000   0.1402   0.00676   0.00136  -0.1037   0.7067   0.0780
  -2.000   0.2525   0.00659   0.00116  -0.1037   0.6546   0.1209
  -1.000   0.3648   0.00649   0.00108  -0.1037   0.6025   0.1888
   0.000   0.4768   0.00644   0.00112  -0.1038   0.5541   0.2872
   1.000   0.5875   0.00604   0.00128  -0.1039   0.5146   0.5571
   2.000   0.6892   0.00541   0.00159  -0.1015   0.4826   0.9666
   3.000   0.8123   0.00578   0.00181  -0.1041   0.4537   1.0000
   4.000   0.9217   0.00621   0.00211  -0.1036   0.4238   1.0000
   5.000   1.0296   0.00677   0.00251  -0.1030   0.3790   1.0000
   6.000   1.1325   0.00769   0.00313  -0.1017   0.3120   1.0000
   7.000   1.2265   0.00922   0.00417  -0.0990   0.2144   1.0000
   8.000   1.3107   0.01131   0.00569  -0.0948   0.1120   1.0000
   9.000   1.3928   0.01322   0.00729  -0.0903   0.0589   1.0000
  10.000   1.4677   0.01498   0.00893  -0.0845   0.0372   1.0000
