  
       XFOIL         Version 6.99
  
 Calculated polar for: NACA 4412                                       
  
 1 1 Reynolds number fixed          Mach number fixed         
  
 xtrf =   1.000 (top)        1.000 (bottom)  
 Mach =   0.000     Re =     0.123 e 6     Ncrit =   9.000
  
   alpha    CL        CD       CDp       CM     Top_Xtr  Bot_Xtr
  ------ -------- --------- --------- -------- -------- --------
  -5.000  -0.2585   0.02951   0.02185  -0.0809   0.9585   0.0880
  -4.000  -0.1023   0.02426   0.01552  -0.0903   0.9343   0.1144
  -3.000   0.0502   0.02131   0.01258  -0.0981   0.9076   0.1676
  -2.000   0.2004   0.01873   0.01054  -0.1049   0.8805   0.2860
  -1.000   0.3433   0.01496   0.00910  -0.1073   0.8517   0.9739
   0.000   0.4705   0.01440   0.00780  -0.1088   0.8104   1.0000
   1.000   0.5818   0.01438   0.00726  -0.1073   0.7647   1.0000
   2.000   0.6904   0.01480   0.00729  -0.1057   0.7194   1.0000
   3.000   0.7972   0.01559   0.00781  -0.1041   0.6773   1.0000
   4.000   0.9019   0.01663   0.00874  -0.1025   0.6377   1.0000
   5.000   1.0066   0.01778   0.00986  -0.1008   0.5997   1.0000
   6.000   1.1072   0.01901   0.01119  -0.0985   0.5588   1.0000
   7.000   1.2031   0.01997   0.01223  -0.0950   0.5094   1.0000
   8.000   1.2880   0.02081   0.01323  -0.0895   0.4503   1.0000
   9.000   1.3531   0.02188   0.01456  -0.0811   0.3770   1.0000
  10.000   1.3734   0.02477   0.01728  -0.0666   0.2624   1.0000
