  
       XFOIL         Version 6.99
  
 Calculated polar for: NACA 4412                                       
  
 1 1 Reynolds number fixed          Mach number fixed         
  
 xtrf =   1.000 (top)        1.000 (bottom)  
 Mach =   0.000     Re =     0.995 e 6     Ncrit =   9.000
  
   alpha    CL        CD       CDp       CM     Top_Xtr  Bot_Xtr
  ------ -------- --------- --------- -------- -------- --------
  -5.000  -0.0801   0.00865   0.00299  -0.1050   0.8492   0.0459
  -4.000   0.0312   0.00805   0.00230  -0.1046   0.8109   0.0631
  -3.000   0.1426   0.00762   0.00181  -0.1043   0.7673   0.0951
  -2.000   0.2535   0.00732   0.00152  -0.1040   0.7180   0.1518
  -1.000   0.3641   0.00713   0.00141  -0.1037   0.6648   0.2410
   0.000   0.4736   0.00691   0.00143  -0.1034   0.6120   0.3982
   1.000   0.5725   0.00596   0.00172  -0.1006   0.5647   0.8943
   2.000   0.6974   0.00629   0.00192  -0.1033   0.5240   1.0000
   3.000   0.8049   0.00675   0.00220  -0.1024   0.4919   1.0000
   4.000   0.9128   0.00724   0.00257  -0.1016   0.4620   1.0000
   5.000   1.0195   0.00782   0.00303  -0.1008   0.4254   1.0000
   6.000   1.1241   0.00851   0.00360  -0.0997   0.3782   1.0000
   7.000   1.2214   0.00968   0.00447  -0.0974   0.3037   1.0000
   8.000   1.3045   0.01177   0.00599  -0.0931   0.1917   1.0000
   9.000   1.3733   0.01447   0.00812  -0.0865   0.0940   1.0000
  10.000   1.4328   0.01692   0.01037  -0.0784   0.0530   1.0000
