  
       XFOIL         Version 6.99
  
 Calculated polar for: NACA 0009                                       
  
 1 1 Reynolds number fixed          Mach number fixed         
  
 xtrf =   1.000 (top)        1.000 (bottom)  
 Mach =   0.000     Re =     0.123 e 6     Ncrit =   9.000
  
   alpha    CL        CD       CDp       CM     Top_Xtr  Bot_Xtr
  ------ -------- --------- --------- -------- -------- --------
  -5.000  -0.5587   0.01679   0.00772  -0.0013   1.0000   0.1379
  -4.000  -0.4821   0.01266   0.00538   0.0044   1.0000   0.4433
  -3.000  -0.3990   0.01117   0.00488   0.0119   1.0000   0.7129
  -2.000  -0.3013   0.01123   0.00520   0.0190   1.0000   0.9044
  -1.000  -0.0652   0.01170   0.00518  -0.0048   1.0000   0.9913
   0.000  -0.0000   0.01111   0.00456   0.0000   1.0000   1.0000
   1.000   0.0652   0.01170   0.00518   0.0048   0.9913   1.0000
   2.000   0.3012   0.01123   0.00520  -0.0190   0.9045   1.0000
   3.000   0.3988   0.01117   0.00487  -0.0118   0.7131   1.0000
   4.000   0.4819   0.01266   0.00537  -0.0044   0.4432   1.0000
   5.000   0.5586   0.01679   0.00772   0.0013   0.1381   1.0000
   6.000   0.6482   0.02136   0.01185   0.0053   0.0825   1.0000
   7.000   0.7435   0.02772   0.01883   0.0088   0.0631   1.0000
   8.000   0.8239   0.03772   0.03001   0.0131   0.0560   1.0000
